UoNewCastle/spd_r/loads_spd_r.dss
new load.load_11834427 bus1=11834427.1 kv=0.2396003617136947  phases=1 kW=0 pf=1
new load.load_11526642 bus1=11526642.2 kv=0.2396003617136947  phases=1 kW=0 pf=1
new load.load_10952569 bus1=10952569.3 kv=0.2396003617136947  phases=1 kW=0 pf=1
new load.load_11089750 bus1=11089750.1 kv=0.2396003617136947  phases=1 kW=0 pf=1
new load.load_11056295 bus1=11056295.2 kv=0.2396003617136947  phases=1 kW=0 pf=1
new load.load_13284933 bus1=13284933.3 kv=0.2396003617136947  phases=1 kW=0 pf=1
new load.load_10952551 bus1=10952551.1 kv=0.2396003617136947  phases=1 kW=0 pf=1
new load.load_12298311 bus1=12298311.2 kv=0.2396003617136947  phases=1 kW=0 pf=1
new load.load_11434169 bus1=11434169.3 kv=0.2396003617136947  phases=1 kW=0 pf=1
new load.load_11056946 bus1=11056946.1 kv=0.2396003617136947  phases=1 kW=0 pf=1
new load.load_10987351 bus1=10987351.2 kv=0.2396003617136947  phases=1 kW=0 pf=1
new load.load_12491308 bus1=12491308.3 kv=0.2396003617136947  phases=1 kW=0 pf=1
new load.load_12447746 bus1=12447746.1 kv=0.2396003617136947  phases=1 kW=0 pf=1
new load.load_10983375 bus1=10983375.2 kv=0.2396003617136947  phases=1 kW=0 pf=1
new load.load_12121550 bus1=12121550.3 kv=0.2396003617136947  phases=1 kW=0 pf=1
new load.load_11022643 bus1=11022643.1 kv=0.2396003617136947  phases=1 kW=0 pf=1
new load.load_12295316 bus1=12295316.2 kv=0.2396003617136947  phases=1 kW=0 pf=1
new load.load_10960343 bus1=10960343.3 kv=0.2396003617136947  phases=1 kW=0 pf=1
new load.load_10987352 bus1=10987352.1 kv=0.2396003617136947  phases=1 kW=0 pf=1
new load.load_11754850 bus1=11754850.2 kv=0.2396003617136947  phases=1 kW=0 pf=1
new load.load_12004807 bus1=12004807.3 kv=0.2396003617136947  phases=1 kW=0 pf=1
new load.load_10637594 bus1=10637594.1 kv=0.2396003617136947  phases=1 kW=0 pf=1
new load.load_10952568 bus1=10952568.2 kv=0.2396003617136947  phases=1 kW=0 pf=1
new load.load_12219819 bus1=12219819.3 kv=0.2396003617136947  phases=1 kW=0 pf=1
